<?xml version="1.0" encoding="UTF-8"?>

<mule xmlns:hl7="http://www.mulesoft.org/schema/mule/hl7" xmlns="http://www.mulesoft.org/schema/mule/core" xmlns:doc="http://www.mulesoft.org/schema/mule/documentation" xmlns:spring="http://www.springframework.org/schema/beans" version="EE-3.3.2" xmlns:xsi="http://www.w3.org/2001/XMLSchema-instance" xsi:schemaLocation="
http://www.mulesoft.org/schema/mule/hl7 http://www.mulesoft.org/schema/mule/hl7/current/mule-hl7.xsd 
http://www.springframework.org/schema/beans http://www.springframework.org/schema/beans/spring-beans-current.xsd 
http://www.mulesoft.org/schema/mule/core http://www.mulesoft.org/schema/mule/core/current/mule.xsd ">
    <flow name="use_case_03_add_segmentFlow1" doc:name="use_case_03_add_segmentFlow1">
        <hl7:inbound-endpoint host="localhost" port="8085" responseTimeout="10000" exchange-pattern="request-response" doc:name="HL7"/>
        <async doc:name="Async">
            <flow-ref name="4_add_segmentFlow1" doc:name="Flow Reference"/>
        </async>
        <hl7:ack-component doc:name="HL7 ACK"/>
    </flow>
    <flow name="4_add_segmentFlow1" doc:name="4_add_segmentFlow1">
        <hl7:string-to-hapimessage-transformer doc:name="String to HL7 Message Object"/>
        <hl7:append-segment segmentName="PID" segment="|1|BOGIE|123456789|0123456789^AA^^JP|BROS^MARIO^^^^||19850101000000|M|||123 FAKE STREET^MARIO \T\ LUIGI BROS PLACE^TOADSTOOL KINGDOM^NES^A1B2C3^JP^HOME^^1234|1234|(555)555-0123^HOME^JP:1234567|||S|MSH|12345678|||||||0|||||N" doc:name="Append Segment"/>
        <hl7:outbound-endpoint host="localhost" port="8090" responseTimeout="10000" exchange-pattern="request-response" doc:name="HL7"/>
    </flow>
</mule>
